/*--------------------------------*- C++ -*----------------------------------*\
  =========                 |
  \\      /  F ield         | OpenFOAM: The Open Source CFD Toolbox
   \\    /   O peration     | Website:  https://openfoam.org
    \\  /    A nd           | Version:  6
     \\/     M anipulation  |
\*---------------------------------------------------------------------------*/
FoamFile
{
    version     2.0;
    format      ascii;
    class       featureEdgeMesh;
    location    "constant/triSurface";
    object      AMI.eMesh;
}
// * * * * * * * * * * * * * * * * * * * * * * * * * * * * * * * * * * * * * //


// points:

122
(
(0.0061795 -0.23992 -0.10548)
(-0.0185221 -0.239284 -0.10548)
(-0.0185221 -0.239284 0.106877)
(0.0061795 -0.23992 0.106877)
(0.0308156 -0.238013 -0.10548)
(0.0308156 -0.238013 0.106877)
(-0.0430274 -0.236112 -0.10548)
(-0.0430274 -0.236112 0.106877)
(0.0551251 -0.233583 -0.10548)
(0.0551251 -0.233583 0.106877)
(-0.0670765 -0.230436 -0.10548)
(-0.0670765 -0.230436 0.106877)
(0.0788502 -0.226677 -0.10548)
(0.0788502 -0.226677 0.106877)
(-0.0904147 -0.222318 -0.10548)
(-0.0904147 -0.222318 0.106877)
(0.10174 -0.217368 -0.10548)
(0.10174 -0.217368 0.106877)
(-0.112794 -0.211843 -0.10548)
(-0.112794 -0.211843 0.106877)
(0.12355 -0.205756 -0.10548)
(0.12355 -0.205756 0.106877)
(-0.133979 -0.199123 -0.10548)
(-0.133979 -0.199123 0.106877)
(0.144051 -0.191961 -0.10548)
(0.144051 -0.191961 0.106877)
(-0.153742 -0.184291 -0.10548)
(-0.153742 -0.184291 0.106877)
(0.163026 -0.176133 -0.10548)
(0.163026 -0.176133 0.106877)
(-0.171877 -0.167507 -0.10548)
(-0.171877 -0.167507 0.106877)
(0.180272 -0.158437 -0.10548)
(0.180272 -0.158437 0.106877)
(-0.188189 -0.148946 -0.10548)
(-0.188189 -0.148946 0.106877)
(0.195607 -0.139061 -0.10548)
(0.195607 -0.139061 0.106877)
(-0.202506 -0.128807 -0.10548)
(-0.202506 -0.128807 0.106877)
(0.208869 -0.118212 -0.10548)
(0.208869 -0.118212 0.106877)
(-0.214677 -0.107303 -0.10548)
(-0.214677 -0.107303 0.106877)
(0.219916 -0.0961089 -0.10548)
(0.219916 -0.0961089 0.106877)
(-0.224572 -0.0846605 -0.10548)
(-0.224572 -0.0846605 0.106877)
(0.228632 -0.0729876 -0.10548)
(0.228632 -0.0729876 0.106877)
(-0.232087 -0.0611211 -0.10548)
(-0.232087 -0.0611211 0.106877)
(0.234925 -0.0490925 -0.10548)
(0.234925 -0.0490925 0.106877)
(-0.237141 -0.0369337 -0.10548)
(-0.237141 -0.0369337 0.106877)
(0.238728 -0.024677 -0.10548)
(0.238728 -0.024677 0.106877)
(-0.239682 -0.0123549 -0.10548)
(-0.239682 -0.0123549 0.106877)
(0.24 -5.8783e-17 -0.10548)
(0.24 -5.8783e-17 0.106877)
(-0.239682 0.0123549 -0.10548)
(-0.239682 0.0123549 0.106877)
(0.238728 0.024677 -0.10548)
(0.238728 0.024677 0.106877)
(-0.237141 0.0369337 -0.10548)
(-0.237141 0.0369337 0.106877)
(0.234925 0.0490925 -0.10548)
(0.234925 0.0490925 0.106877)
(-0.232087 0.0611211 -0.10548)
(-0.232087 0.0611211 0.106877)
(0.228632 0.0729876 -0.10548)
(0.228632 0.0729876 0.106877)
(-0.224572 0.0846605 -0.10548)
(-0.224572 0.0846605 0.106877)
(0.219916 0.0961089 -0.10548)
(0.219916 0.0961089 0.106877)
(-0.214677 0.107303 -0.10548)
(-0.214677 0.107303 0.106877)
(0.208869 0.118212 -0.10548)
(0.208869 0.118212 0.106877)
(-0.202506 0.128807 -0.10548)
(-0.202506 0.128807 0.106877)
(0.195607 0.139061 -0.10548)
(0.195607 0.139061 0.106877)
(-0.188189 0.148946 -0.10548)
(-0.188189 0.148946 0.106877)
(0.180272 0.158437 -0.10548)
(0.180272 0.158437 0.106877)
(-0.171877 0.167507 -0.10548)
(-0.171877 0.167507 0.106877)
(0.163026 0.176133 -0.10548)
(0.163026 0.176133 0.106877)
(-0.153742 0.184291 -0.10548)
(-0.153742 0.184291 0.106877)
(0.144051 0.191961 -0.10548)
(0.144051 0.191961 0.106877)
(-0.133979 0.199123 -0.10548)
(-0.133979 0.199123 0.106877)
(0.12355 0.205756 -0.10548)
(0.12355 0.205756 0.106877)
(-0.112794 0.211843 -0.10548)
(-0.112794 0.211843 0.106877)
(0.10174 0.217368 -0.10548)
(0.10174 0.217368 0.106877)
(-0.0904147 0.222318 -0.10548)
(-0.0904147 0.222318 0.106877)
(0.0788502 0.226677 -0.10548)
(0.0788502 0.226677 0.106877)
(-0.0670765 0.230436 -0.10548)
(-0.0670765 0.230436 0.106877)
(0.0551251 0.233583 -0.10548)
(0.0551251 0.233583 0.106877)
(-0.0430274 0.236112 -0.10548)
(-0.0430274 0.236112 0.106877)
(0.0308156 0.238013 -0.10548)
(0.0308156 0.238013 0.106877)
(-0.0185221 0.239284 -0.10548)
(-0.0185221 0.239284 0.106877)
(0.0061795 0.23992 -0.10548)
(0.0061795 0.23992 0.106877)
)


// edges:

122
(
(0 1)
(2 3)
(4 0)
(3 5)
(1 6)
(7 2)
(8 4)
(5 9)
(6 10)
(11 7)
(12 8)
(9 13)
(10 14)
(15 11)
(16 12)
(13 17)
(14 18)
(19 15)
(20 16)
(17 21)
(18 22)
(23 19)
(24 20)
(21 25)
(22 26)
(27 23)
(28 24)
(25 29)
(26 30)
(31 27)
(32 28)
(29 33)
(30 34)
(35 31)
(36 32)
(33 37)
(34 38)
(39 35)
(40 36)
(37 41)
(38 42)
(43 39)
(44 40)
(41 45)
(42 46)
(47 43)
(48 44)
(45 49)
(46 50)
(51 47)
(52 48)
(49 53)
(50 54)
(55 51)
(56 52)
(53 57)
(54 58)
(59 55)
(60 56)
(57 61)
(58 62)
(63 59)
(64 60)
(61 65)
(62 66)
(67 63)
(68 64)
(65 69)
(66 70)
(71 67)
(72 68)
(69 73)
(70 74)
(75 71)
(76 72)
(73 77)
(74 78)
(79 75)
(80 76)
(77 81)
(78 82)
(83 79)
(84 80)
(81 85)
(82 86)
(87 83)
(88 84)
(85 89)
(86 90)
(91 87)
(92 88)
(89 93)
(90 94)
(95 91)
(96 92)
(93 97)
(94 98)
(99 95)
(100 96)
(97 101)
(98 102)
(103 99)
(104 100)
(101 105)
(102 106)
(107 103)
(108 104)
(105 109)
(106 110)
(111 107)
(112 108)
(109 113)
(110 114)
(115 111)
(116 112)
(113 117)
(114 118)
(119 115)
(120 116)
(117 121)
(118 120)
(121 119)
)

// * * * * * * * * * * * * * * * * * * * * * * * * * * * * * * * * * * * * * //


// ************************************************************************* //
