/*--------------------------------*- C++ -*----------------------------------*\
  =========                 |
  \\      /  F ield         | OpenFOAM: The Open Source CFD Toolbox
   \\    /   O peration     | Website:  https://openfoam.org
    \\  /    A nd           | Version:  6
     \\/     M anipulation  |
\*---------------------------------------------------------------------------*/
FoamFile
{
    version     2.0;
    format      ascii;
    class       extendedFeatureEdgeMesh;
    location    "constant/extendedFeatureEdgeMesh";
    object      AMI.extendedFeatureEdgeMesh;
}
// * * * * * * * * * * * * * * * * * * * * * * * * * * * * * * * * * * * * * //

// points

122
(
(0.0061795 -0.23992 -0.10548)
(-0.0185221 -0.239284 -0.10548)
(-0.0185221 -0.239284 0.106877)
(0.0061795 -0.23992 0.106877)
(0.0308156 -0.238013 -0.10548)
(0.0308156 -0.238013 0.106877)
(-0.0430274 -0.236112 -0.10548)
(-0.0430274 -0.236112 0.106877)
(0.0551251 -0.233583 -0.10548)
(0.0551251 -0.233583 0.106877)
(-0.0670765 -0.230436 -0.10548)
(-0.0670765 -0.230436 0.106877)
(0.0788502 -0.226677 -0.10548)
(0.0788502 -0.226677 0.106877)
(-0.0904147 -0.222318 -0.10548)
(-0.0904147 -0.222318 0.106877)
(0.10174 -0.217368 -0.10548)
(0.10174 -0.217368 0.106877)
(-0.112794 -0.211843 -0.10548)
(-0.112794 -0.211843 0.106877)
(0.12355 -0.205756 -0.10548)
(0.12355 -0.205756 0.106877)
(-0.133979 -0.199123 -0.10548)
(-0.133979 -0.199123 0.106877)
(0.144051 -0.191961 -0.10548)
(0.144051 -0.191961 0.106877)
(-0.153742 -0.184291 -0.10548)
(-0.153742 -0.184291 0.106877)
(0.163026 -0.176133 -0.10548)
(0.163026 -0.176133 0.106877)
(-0.171877 -0.167507 -0.10548)
(-0.171877 -0.167507 0.106877)
(0.180272 -0.158437 -0.10548)
(0.180272 -0.158437 0.106877)
(-0.188189 -0.148946 -0.10548)
(-0.188189 -0.148946 0.106877)
(0.195607 -0.139061 -0.10548)
(0.195607 -0.139061 0.106877)
(-0.202506 -0.128807 -0.10548)
(-0.202506 -0.128807 0.106877)
(0.208869 -0.118212 -0.10548)
(0.208869 -0.118212 0.106877)
(-0.214677 -0.107303 -0.10548)
(-0.214677 -0.107303 0.106877)
(0.219916 -0.0961089 -0.10548)
(0.219916 -0.0961089 0.106877)
(-0.224572 -0.0846605 -0.10548)
(-0.224572 -0.0846605 0.106877)
(0.228632 -0.0729876 -0.10548)
(0.228632 -0.0729876 0.106877)
(-0.232087 -0.0611211 -0.10548)
(-0.232087 -0.0611211 0.106877)
(0.234925 -0.0490925 -0.10548)
(0.234925 -0.0490925 0.106877)
(-0.237141 -0.0369337 -0.10548)
(-0.237141 -0.0369337 0.106877)
(0.238728 -0.024677 -0.10548)
(0.238728 -0.024677 0.106877)
(-0.239682 -0.0123549 -0.10548)
(-0.239682 -0.0123549 0.106877)
(0.24 -5.8783e-17 -0.10548)
(0.24 -5.8783e-17 0.106877)
(-0.239682 0.0123549 -0.10548)
(-0.239682 0.0123549 0.106877)
(0.238728 0.024677 -0.10548)
(0.238728 0.024677 0.106877)
(-0.237141 0.0369337 -0.10548)
(-0.237141 0.0369337 0.106877)
(0.234925 0.0490925 -0.10548)
(0.234925 0.0490925 0.106877)
(-0.232087 0.0611211 -0.10548)
(-0.232087 0.0611211 0.106877)
(0.228632 0.0729876 -0.10548)
(0.228632 0.0729876 0.106877)
(-0.224572 0.0846605 -0.10548)
(-0.224572 0.0846605 0.106877)
(0.219916 0.0961089 -0.10548)
(0.219916 0.0961089 0.106877)
(-0.214677 0.107303 -0.10548)
(-0.214677 0.107303 0.106877)
(0.208869 0.118212 -0.10548)
(0.208869 0.118212 0.106877)
(-0.202506 0.128807 -0.10548)
(-0.202506 0.128807 0.106877)
(0.195607 0.139061 -0.10548)
(0.195607 0.139061 0.106877)
(-0.188189 0.148946 -0.10548)
(-0.188189 0.148946 0.106877)
(0.180272 0.158437 -0.10548)
(0.180272 0.158437 0.106877)
(-0.171877 0.167507 -0.10548)
(-0.171877 0.167507 0.106877)
(0.163026 0.176133 -0.10548)
(0.163026 0.176133 0.106877)
(-0.153742 0.184291 -0.10548)
(-0.153742 0.184291 0.106877)
(0.144051 0.191961 -0.10548)
(0.144051 0.191961 0.106877)
(-0.133979 0.199123 -0.10548)
(-0.133979 0.199123 0.106877)
(0.12355 0.205756 -0.10548)
(0.12355 0.205756 0.106877)
(-0.112794 0.211843 -0.10548)
(-0.112794 0.211843 0.106877)
(0.10174 0.217368 -0.10548)
(0.10174 0.217368 0.106877)
(-0.0904147 0.222318 -0.10548)
(-0.0904147 0.222318 0.106877)
(0.0788502 0.226677 -0.10548)
(0.0788502 0.226677 0.106877)
(-0.0670765 0.230436 -0.10548)
(-0.0670765 0.230436 0.106877)
(0.0551251 0.233583 -0.10548)
(0.0551251 0.233583 0.106877)
(-0.0430274 0.236112 -0.10548)
(-0.0430274 0.236112 0.106877)
(0.0308156 0.238013 -0.10548)
(0.0308156 0.238013 0.106877)
(-0.0185221 0.239284 -0.10548)
(-0.0185221 0.239284 0.106877)
(0.0061795 0.23992 -0.10548)
(0.0061795 0.23992 0.106877)
)

// edges

122
(
(0 1)
(2 3)
(4 0)
(3 5)
(1 6)
(7 2)
(8 4)
(5 9)
(6 10)
(11 7)
(12 8)
(9 13)
(10 14)
(15 11)
(16 12)
(13 17)
(14 18)
(19 15)
(20 16)
(17 21)
(18 22)
(23 19)
(24 20)
(21 25)
(22 26)
(27 23)
(28 24)
(25 29)
(26 30)
(31 27)
(32 28)
(29 33)
(30 34)
(35 31)
(36 32)
(33 37)
(34 38)
(39 35)
(40 36)
(37 41)
(38 42)
(43 39)
(44 40)
(41 45)
(42 46)
(47 43)
(48 44)
(45 49)
(46 50)
(51 47)
(52 48)
(49 53)
(50 54)
(55 51)
(56 52)
(53 57)
(54 58)
(59 55)
(60 56)
(57 61)
(58 62)
(63 59)
(64 60)
(61 65)
(62 66)
(67 63)
(68 64)
(65 69)
(66 70)
(71 67)
(72 68)
(69 73)
(70 74)
(75 71)
(76 72)
(73 77)
(74 78)
(79 75)
(80 76)
(77 81)
(78 82)
(83 79)
(84 80)
(81 85)
(82 86)
(87 83)
(88 84)
(85 89)
(86 90)
(91 87)
(92 88)
(89 93)
(90 94)
(95 91)
(96 92)
(93 97)
(94 98)
(99 95)
(100 96)
(97 101)
(98 102)
(103 99)
(104 100)
(101 105)
(102 106)
(107 103)
(108 104)
(105 109)
(106 110)
(111 107)
(112 108)
(109 113)
(110 114)
(115 111)
(116 112)
(113 117)
(114 118)
(119 115)
(120 116)
(117 121)
(118 120)
(121 119)
)

// concaveStart mixedStart nonFeatureStart
0 0 0
// internalStart flatStart openStart multipleStart
0 0 0 122
// normals

122
(
(0.0257465 0.999669 -0)
(0.0257465 0.999669 0)
(-0.0771755 0.997018 0)
(-0.0771755 0.997018 0)
(0.128398 0.991723 -0)
(0.128398 0.991723 0)
(-0.179277 0.983799 0)
(-0.179277 0.983799 0)
(0.229687 0.973265 -0)
(0.229687 0.973265 0)
(-0.279488 0.960149 0)
(-0.279488 0.960149 0)
(0.328542 0.94449 -0)
(0.328542 0.94449 0)
(-0.376728 0.926324 0)
(-0.376728 0.926324 0)
(0.423917 0.905701 -0)
(0.423917 0.905701 0)
(-0.469976 0.882679 0)
(-0.469976 0.882679 0)
(0.514791 0.857316 -0)
(0.514791 0.857316 0)
(-0.558245 0.829676 0)
(-0.558245 0.829676 0)
(0.600214 0.799839 -0)
(0.600214 0.799839 0)
(-0.640592 0.767882 0)
(-0.640592 0.767882 0)
(0.679274 0.733884 -0)
(0.679274 0.733884 0)
(-0.716152 0.697945 0)
(-0.716152 0.697945 0)
(0.751132 0.660152 -0)
(0.751132 0.660152 0)
(-0.78412 0.620609 0)
(-0.78412 0.620609 0)
(0.815028 0.579421 -0)
(0.815028 0.579421 0)
(-0.843775 0.536696 0)
(-0.843775 0.536696 0)
(0.870285 0.492549 -0)
(0.870285 0.492549 0)
(-0.894487 0.447095 0)
(-0.894487 0.447095 0)
(0.916317 0.400453 -0)
(0.916317 0.400453 0)
(-0.935717 0.35275 0)
(-0.935717 0.35275 0)
(0.952634 0.304118 -0)
(0.952634 0.304118 0)
(-0.967027 0.254673 0)
(-0.967027 0.254673 0)
(0.978856 0.20455 -0)
(0.978856 0.20455 0)
(-0.988088 0.15389 0)
(-0.988088 0.15389 0)
(0.9947 0.102821 -0)
(0.9947 0.102821 0)
(-0.998674 0.0514773 0)
(-0.998674 0.0514773 0)
(1 0 -0)
(1 0 0)
(-0.998674 -0.0514773 -0)
(-0.998674 -0.0514773 -0)
(0.9947 -0.102821 0)
(0.9947 -0.102821 0)
(-0.988088 -0.15389 -0)
(-0.988088 -0.15389 -0)
(0.978856 -0.20455 0)
(0.978856 -0.20455 0)
(-0.967027 -0.254673 -0)
(-0.967027 -0.254673 -0)
(0.952634 -0.304118 0)
(0.952634 -0.304118 0)
(-0.935717 -0.35275 -0)
(-0.935717 -0.35275 -0)
(0.916317 -0.400453 0)
(0.916317 -0.400453 0)
(-0.894487 -0.447095 -0)
(-0.894487 -0.447095 -0)
(0.870285 -0.492549 0)
(0.870285 -0.492549 0)
(-0.843775 -0.536696 -0)
(-0.843775 -0.536696 -0)
(0.815028 -0.579421 0)
(0.815028 -0.579421 0)
(-0.78412 -0.620609 -0)
(-0.78412 -0.620609 -0)
(0.751132 -0.660152 0)
(0.751132 -0.660152 0)
(-0.716152 -0.697945 -0)
(-0.716152 -0.697945 -0)
(0.679274 -0.733884 0)
(0.679274 -0.733884 0)
(-0.640592 -0.767882 -0)
(-0.640592 -0.767882 -0)
(0.600214 -0.799839 0)
(0.600214 -0.799839 0)
(-0.558245 -0.829676 -0)
(-0.558245 -0.829676 -0)
(0.514791 -0.857316 0)
(0.514791 -0.857316 0)
(-0.469976 -0.882679 -0)
(-0.469976 -0.882679 -0)
(0.423917 -0.905701 0)
(0.423917 -0.905701 0)
(-0.376728 -0.926324 -0)
(-0.376728 -0.926324 -0)
(0.328542 -0.94449 0)
(0.328542 -0.94449 0)
(-0.279488 -0.960149 -0)
(-0.279488 -0.960149 -0)
(0.229687 -0.973265 0)
(0.229687 -0.973265 0)
(-0.179277 -0.983799 -0)
(-0.179277 -0.983799 -0)
(0.128398 -0.991723 0)
(0.128398 -0.991723 0)
(-0.0771755 -0.997018 -0)
(-0.0771755 -0.997018 -0)
(0.0257465 -0.999669 0)
(0.0257465 -0.999669 0)
)

// normal volume types

122
(
0
0
0
0
0
0
0
0
0
0
0
0
0
0
0
0
0
0
0
0
0
0
0
0
0
0
0
0
0
0
0
0
0
0
0
0
0
0
0
0
0
0
0
0
0
0
0
0
0
0
0
0
0
0
0
0
0
0
0
0
0
0
0
0
0
0
0
0
0
0
0
0
0
0
0
0
0
0
0
0
0
0
0
0
0
0
0
0
0
0
0
0
0
0
0
0
0
0
0
0
0
0
0
0
0
0
0
0
0
0
0
0
0
0
0
0
0
0
0
0
0
0
)

// normalDirections

122
(
1(1)
1(1)
1(1)
1(1)
1(1)
1(1)
1(1)
1(1)
1(1)
1(1)
1(1)
1(1)
1(1)
1(1)
1(1)
1(1)
1(1)
1(1)
1(1)
1(1)
1(1)
1(1)
1(1)
1(1)
1(1)
1(1)
1(1)
1(1)
1(1)
1(1)
1(1)
1(1)
1(1)
1(1)
1(1)
1(1)
1(1)
1(1)
1(1)
1(1)
1(1)
1(1)
1(1)
1(1)
1(1)
1(1)
1(1)
1(1)
1(1)
1(1)
1(1)
1(1)
1(1)
1(1)
1(1)
1(1)
1(1)
1(1)
1(1)
1(1)
1(1)
1(1)
1(1)
1(1)
1(1)
1(1)
1(1)
1(1)
1(1)
1(1)
1(1)
1(1)
1(1)
1(1)
1(1)
1(1)
1(1)
1(1)
1(1)
1(1)
1(1)
1(1)
1(1)
1(1)
1(1)
1(1)
1(1)
1(1)
1(1)
1(1)
1(1)
1(1)
1(1)
1(1)
1(1)
1(1)
1(1)
1(1)
1(1)
1(1)
1(1)
1(1)
1(1)
1(1)
1(1)
1(1)
1(1)
1(1)
1(1)
1(1)
1(1)
1(1)
1(1)
1(1)
1(1)
1(1)
1(1)
1(1)
1(1)
1(1)
1(1)
1(1)
)

// edgeNormals

122
(
1(0)
1(1)
1(2)
1(3)
1(4)
1(5)
1(6)
1(7)
1(8)
1(9)
1(10)
1(11)
1(12)
1(13)
1(14)
1(15)
1(16)
1(17)
1(18)
1(19)
1(20)
1(21)
1(22)
1(23)
1(24)
1(25)
1(26)
1(27)
1(28)
1(29)
1(30)
1(31)
1(32)
1(33)
1(34)
1(35)
1(36)
1(37)
1(38)
1(39)
1(40)
1(41)
1(42)
1(43)
1(44)
1(45)
1(46)
1(47)
1(48)
1(49)
1(50)
1(51)
1(52)
1(53)
1(54)
1(55)
1(56)
1(57)
1(58)
1(59)
1(60)
1(61)
1(62)
1(63)
1(64)
1(65)
1(66)
1(67)
1(68)
1(69)
1(70)
1(71)
1(72)
1(73)
1(74)
1(75)
1(76)
1(77)
1(78)
1(79)
1(80)
1(81)
1(82)
1(83)
1(84)
1(85)
1(86)
1(87)
1(88)
1(89)
1(90)
1(91)
1(92)
1(93)
1(94)
1(95)
1(96)
1(97)
1(98)
1(99)
1(100)
1(101)
1(102)
1(103)
1(104)
1(105)
1(106)
1(107)
1(108)
1(109)
1(110)
1(111)
1(112)
1(113)
1(114)
1(115)
1(116)
1(117)
1(118)
1(119)
1(120)
1(121)
)

// featurePointNormals
0()
// featurePointEdges
0()
// regionEdges

122
(
0
1
2
3
4
5
6
7
8
9
10
11
12
13
14
15
16
17
18
19
20
21
22
23
24
25
26
27
28
29
30
31
32
33
34
35
36
37
38
39
40
41
42
43
44
45
46
47
48
49
50
51
52
53
54
55
56
57
58
59
60
61
62
63
64
65
66
67
68
69
70
71
72
73
74
75
76
77
78
79
80
81
82
83
84
85
86
87
88
89
90
91
92
93
94
95
96
97
98
99
100
101
102
103
104
105
106
107
108
109
110
111
112
113
114
115
116
117
118
119
120
121
)



// ************************************************************************* //
